[General]
network = covid19_guidance_simulator.Covid19GuidanceSimulator
record-eventlog = true
simtime-resolution = 1s
sim-time-limit = 90d
image-path="assets"

Covid19GuidanceSimulator.map_color_mode = "dark"
Covid19GuidanceSimulator.start_date = "2020-01-01"

include config_files/new_york_city.ini